LAMMPS (23 Jun 2022)

units real
boundary p p p
atom_style full
region mybox block -500.000000 500.000000 -500.000000 500.000000 -500.000000 500.000000
create_box 3 mybox bond/types 2 angle/types 0 dihedral/types 0 extra/special/per/atom 20 extra/bond/per/atom 20 extra/angle/per/atom 20
Created orthogonal box = (-500 -500 -500) to (500 500 500)
#variable string MAA type 1
#variable Na type 2
molecule pol PDMAEMA_with_sidechains.mol
Read molecule template pol:
  1 molecules
  0 fragments
  220 atoms with max type 3
  103 bonds with max type 2
  0 angles with max type 0
  0 dihedrals with max type 0
  0 impropers with max type 0
mass 1 157.21
mass 2 170.33
mass 3 35.453
dielectric 81.2
bond_style harmonic
bond_coeff 1 0.57 5
bond_coeff 2 3.0 5.3
pair_style lj/cut/coul/long 4.568 500.0
pair_coeff 1 1 0.7 4.0 4.49
pair_coeff 2 2 0.8 4.7 5.3
pair_coeff 3 3 0.1 4.3 4.8
kspace_style pppm 1e-6
create_atoms 0 single 0 0 0 mol pol 123
Created 220 atoms

velocity all create 300.0 4928459
pair_modify shift yes mix arithmetic
fix nvt all langevin 300 300 100.0 6138895 gjf vfull
fix nve all nve
dump xtc all xtc 1000 PDMAEMA_with_sidechains.xtc
thermo		10000
timestep 2
run		1000000
PPPM initialization ...
  G vector (1/distance) = 0.0045578333
  grid = 6 6 6
  stencil order = 5
  estimated absolute RMS force accuracy = 2.1769826e-06
  estimated relative force accuracy = 6.5559183e-09
  3d grid and FFT values/proc = 1331 216
Generated 3 of 3 mixed pair_coeff terms from arithmetic mixing rule
  update every 1 steps, delay 10 steps, check yes
Step          Temp          E_pair         E_mol          TotEng         Press
0   301.84505      175.95665      207.68474      580.68506      0.15787685
Averages over the last 51 of 101 rows, steps 500000 to 1000000:
Temp E_pair E_mol TotEng Press
303.625 -50.7742 30.9345 178.366 0.00386256
Loop time of 423.142 on 1 procs for 1000000 steps with 220 atoms

write_data PDMAEMA_with_sidechains.data
System init for write_data ...
PPPM initialization ...
  G vector (1/distance) = 0.0045578333
  grid = 6 6 6
  stencil order = 5
  estimated absolute RMS force accuracy = 2.1769826e-06
  estimated relative force accuracy = 6.5559183e-09
  3d grid and FFT values/proc = 1331 216
Generated 3 of 3 mixed pair_coeff terms from arithmetic mixing rule
