LAMMPS (23 Jun 2022)

units real
boundary p p p
atom_style full
region mybox block -500.000000 500.000000 -500.000000 500.000000 -500.000000 500.000000
create_box 3 mybox bond/types 2 angle/types 2 dihedral/types 0 extra/special/per/atom 20 extra/bond/per/atom 20 extra/angle/per/atom 20
Created orthogonal box = (-500 -500 -500) to (500 500 500)
#variable string MAA type 1
#variable Na type 2
molecule pol PMAA_PEG.mol
Read molecule template pol:
  1 molecules
  0 fragments
  245 atoms with max type 3
  144 bonds with max type 1
  145 angles with max type 2
  0 dihedrals with max type 0
  0 impropers with max type 0
mass 1 86.09
mass 2 44
mass 3 11.0000
dielectric 81.2
bond_style harmonic
bond_coeff 1 0.690 3.492
bond_coeff 2 0.46 5.414
pair_style lj/cut/coul/long 4.568 500.0
pair_coeff 1 1 0.596 3.6 4.04 #PMAA atoms
pair_coeff 2 2 0.596 3.6 4.04 #PEG/PEO atoms
pair_coeff 3 3 0.108 2.31 2.59 #Na atoms
angle_style cosine
angle_coeff 1 1.09
angle_coeff 2 0.42
kspace_style pppm 1e-6
create_atoms 0 single 0 0 0 mol pol 123
Created 245 atoms
velocity all create 300.0 4928459
pair_modify shift yes mix arithmetic
fix nvt all langevin 300 300 100.0 6138895 gjf vfull
fix nve all nve
dump xtc all xtc 1000 PMAA_PEG.xtc
thermo		100000
timestep 2.0
run		50000000
PPPM initialization ...
  G vector (1/distance) = 0.0045578333
  grid = 6 6 6
  stencil order = 5
  estimated absolute RMS force accuracy = 2.5786551e-06
  estimated relative force accuracy = 7.7655433e-09
  3d grid and FFT values/proc = 1331 216
Generated 3 of 3 mixed pair_coeff terms from arithmetic mixing rule
  update every 1 steps, delay 10 steps, check yes
Step          Temp          E_pair         E_mol          TotEng         Press
0   299.62185     -163.35992      18.437848      72.998189     -0.0013922813
Averages over the last 251 of 501 rows, steps 25000000 to 50000000:
Temp E_pair E_mol TotEng Press
302.528 -78.1512 99.1376 241.02 0.00186271
Loop time of 18955.6 on 1 procs for 50000000 steps with 245 atoms

write_data PMAA_PEG.data
System init for write_data ...
PPPM initialization ...
  G vector (1/distance) = 0.0045578333
  grid = 6 6 6
  stencil order = 5
  estimated absolute RMS force accuracy = 2.5786551e-06
  estimated relative force accuracy = 7.7655433e-09
  3d grid and FFT values/proc = 1331 216
Generated 3 of 3 mixed pair_coeff terms from arithmetic mixing rule
