LAMMPS (23 Jun 2022)

units real
boundary p p p
atom_style full
region mybox block -500.000000 500.000000 -500.000000 500.000000 -500.000000 500.000000
create_box 2 mybox bond/types 1 angle/types 0 dihedral/types 0 extra/special/per/atom 20 extra/bond/per/atom 20 extra/angle/per/atom 20
Created orthogonal box = (-500 -500 -500) to (500 500 500)
#variable string MAA type 1
#variable Na type 2
molecule pol PDMAEMA.mol
Read molecule template pol:
  1 molecules
  0 fragments
  200 atoms with max type 2
  99 bonds with max type 1
  0 angles with max type 0
  0 dihedrals with max type 0
  0 impropers with max type 0
mass 1 157.21
mass 2 35.453
dielectric 81.2
bond_style harmonic
bond_coeff 1 0.57 5
pair_style lj/cut/coul/long 4.568 500.0
pair_coeff 1 1 0.7 4.0 4.49
pair_coeff 2 2 0.1 4.3 4.8
kspace_style pppm 1e-6
create_atoms 0 single 0 0 0 mol pol 123
Created 200 atoms

velocity all create 300.0 4928459
pair_modify shift yes mix arithmetic
fix nvt all langevin 300 300 100.0 6138895 gjf vfull
fix nve all nve
dump xtc all xtc 10000 PDMAEMA_short.xtc
thermo      10000
timestep 2
run     1000000
PPPM initialization ...
  G vector (1/distance) = 0.0045578333
  grid = 6 6 6
  stencil order = 5
  estimated absolute RMS force accuracy = 2.8540482e-06
  estimated relative force accuracy = 8.5948814e-09
  3d grid and FFT values/proc = 1331 216
Generated 1 of 1 mixed pair_coeff terms from arithmetic mixing rule
  update every 1 steps, delay 10 steps, check yes
Step          Temp          E_pair         E_mol          TotEng         Press
0   302.88825     -167.71985      5.365682e-27   11.947763      0.0043797546
Averages over the last 51 of 101 rows, steps 500000 to 1000000:
Temp E_pair E_mol TotEng Press
301.685 -95.1318 51.3625 135.185 -0.00350339
Loop time of 518.955 on 1 procs for 1000000 steps with 200 atoms

write_data PDMAEMA_short.data
System init for write_data ...
PPPM initialization ...
  G vector (1/distance) = 0.0045578333
  grid = 6 6 6
  stencil order = 5
  estimated absolute RMS force accuracy = 2.8540482e-06
  estimated relative force accuracy = 8.5948814e-09
  3d grid and FFT values/proc = 1331 216
Generated 1 of 1 mixed pair_coeff terms from arithmetic mixing rule
